Circuit: * C:\Users\carlo\OneDrive\Documentos\GitHub\LabCircuitosEletronicos\ProjetoFinal.asc

