Circuit: * C:\Users\carlo\OneDrive\Documentos\GitHub\LabCircuitosEletronicos\ProjetoFinal.asc

Direct Newton iteration for .op point succeeded.

Date: Fri Dec 15 17:04:02 2023
Total elapsed time: 0.174 seconds.

tnom = 27
temp = 27
method = modified trap
totiter = 2131
traniter = 2123
tranpoints = 1050
accept = 1048
rejected = 2
matrix size = 11
fillins = 3
solver = Normal
Avg thread counts: 2.3/3.6/3.6/2.3
Matrix Compiler1: 726 bytes object code size  0.3/0.2/[0.2]
Matrix Compiler2: off  [0.2]/0.2/0.2

